3
Lattice="3.6199896408691554 0.0 0.0 -1.8099948204345777 3.135002990429195 0.0 0.0 0.0 125.0" Properties=species:S:1:pos:R:3 pbc="T T T"
Ca       0.00000000       2.09000199     123.74712273
Ca       1.80999482       1.04500100       1.25287727
N        0.00000000       0.00000000       0.00000000
